Circuit: * C:\Users\zewen\Downloads\nanowirepp\spice\circuit.asc

WARNING: Node UNUSED is floating.

WARNING: Less than two connections to node UNUSED.  This node is used by V:U1:1.
WARNING: Less than two connections to node PWM-LOW-1.  This node is used by A1.
WARNING: Less than two connections to node PWM-HIGH-2.  This node is used by A2.
Per .tran options, skipping operating point for transient analysis.

Date: Wed Aug 14 12:17:13 2024
Total elapsed time: 0.103 seconds.

tnom = 27
temp = 27
method = modified trap
totiter = 36670
traniter = 36670
tranpoints = 12763
accept = 10750
rejected = 2013
matrix size = 29
fillins = 1
solver = Normal
Matrix Compiler1: 774 bytes object code size  0.2/0.1/[0.1]
Matrix Compiler2: 1.63 KB object code size  0.1/0.2/[0.1]

