Circuit: * C:\Users\zewen\Downloads\nanowirepp\spice\circuit.asc

WARNING: Node UNUSED is floating.

WARNING: Less than two connections to node UNUSED.  This node is used by V:U1:1.
WARNING: Less than two connections to node PWM-LOW-1.  This node is used by A1.
WARNING: Less than two connections to node PWM-HIGH-2.  This node is used by A2.
Per .tran options, skipping operating point for transient analysis.

Date: Wed Aug 14 12:36:08 2024
Total elapsed time: 16.048 seconds.

tnom = 27
temp = 27
method = modified trap
totiter = 1008925
traniter = 1008925
tranpoints = 503130
accept = 502564
rejected = 566
matrix size = 29
fillins = 2
solver = Normal
Matrix Compiler1: 810 bytes object code size  0.2/0.1/[0.1]
Matrix Compiler2: 1.65 KB object code size  0.1/0.3/[0.1]

