Circuit: * C:\Users\zewen\Downloads\nanowirepp\spice\circuit.asc

WARNING: Node UNUSED is floating.

WARNING: Less than two connections to node UNUSED.  This node is used by V:U1:1.
WARNING: Less than two connections to node PWM-LOW-1.  This node is used by A1.
WARNING: Less than two connections to node PWM-HIGH-2.  This node is used by A2.
Per .tran options, skipping operating point for transient analysis.

Date: Wed Aug 14 12:02:04 2024
Total elapsed time: 17.499 seconds.

tnom = 27
temp = 27
method = modified trap
totiter = 1009430
traniter = 1009430
tranpoints = 503284
accept = 502649
rejected = 635
matrix size = 29
fillins = 2
solver = Normal
Matrix Compiler1:      51 opcodes  0.2/[0.1]/0.1
Matrix Compiler2: 1.65 KB object code size  0.1/0.2/[0.1]

